25

K 0.000000 0.000000 0.000000
K 2.193931 2.193931 -2.193931
P 4.387862 0.000000 -4.387862
G 6.581793 2.193931 -6.581793
A 8.775724 0.000000 -8.775724
S 10.969655 -2.193931 -6.581793
L 8.775724 -4.387862 -4.387862
A 6.581793 -2.193931 -2.193931
A 4.387862 -4.387862 -0.000000
L 2.193931 -6.581793 -2.193931
Q 0.000000 -4.387862 -4.387862
A 2.193931 -2.193931 -6.581793
L 4.387862 -4.387862 -8.775724
Q 6.581793 -2.193931 -10.969655
A 8.775724 -4.387862 -13.163586
L 10.969655 -6.581793 -10.969655
Q 8.775724 -8.775724 -8.775724
A 6.581793 -6.581793 -6.581793
A 4.387862 -8.775724 -4.387862
Q 6.581793 -10.969655 -2.193931
A 8.775724 -8.775724 -0.000000
A 10.969655 -6.581793 -2.193931
K 13.163586 -8.775724 -4.387862
K 15.357517 -6.581793 -6.581793
Y 13.163586 -4.387862 -8.775724
