25

K 0.000000 0.000000 0.000000
K 2.193931 2.193931 -2.193931
P 4.387862 0.000000 -4.387862
G 6.581793 2.193931 -6.581793
A 8.775724 4.387862 -4.387862
S 10.969655 2.193931 -2.193931
L 13.163586 0.000000 -4.387862
A 15.357517 -2.193931 -2.193931
A 17.551448 -4.387862 -4.387862
L 15.357517 -6.581793 -6.581793
Q 13.163586 -8.775724 -4.387862
A 10.969655 -6.581793 -2.193931
L 13.163586 -4.387862 -0.000000
Q 10.969655 -2.193931 2.193931
A 8.775724 -0.000000 -0.000000
L 6.581793 -2.193931 -2.193931
Q 8.775724 -4.387862 -4.387862
A 10.969655 -2.193931 -6.581793
A 8.775724 -0.000000 -8.775724
Q 10.969655 2.193931 -10.969655
A 13.163586 4.387862 -8.775724
A 15.357517 2.193931 -6.581793
K 17.551448 -0.000000 -8.775724
K 15.357517 -2.193931 -10.969655
Y 13.163586 -4.387862 -8.775724
