12

F 0.000000 0.000000 0.000000
A 2.193931 2.193931 -2.193931
T 4.387862 0.000000 -4.387862
M 6.581793 -2.193931 -2.193931
R 4.387862 -4.387862 0.000000
Y 2.193931 -2.193931 2.193931
P 4.387862 0.000000 4.387862
S 2.193931 2.193931 6.581793
D 0.000000 4.387862 4.387862
S 2.193931 6.581793 2.193931
D 4.387862 4.387862 0.000000
E 6.581793 2.193931 2.193931
