12

V 0.000000 0.000000 0.000000
R 2.193931 2.193931 -2.193931
R 4.387862 0.000000 -4.387862
F 6.581793 -2.193931 -2.193931
D 4.387862 -4.387862 0.000000
L 2.193931 -2.193931 2.193931
L 0.000000 -4.387862 4.387862
K -2.193931 -6.581793 2.193931
R -4.387862 -4.387862 0.000000
I -2.193931 -2.193931 -2.193931
L -4.387862 -0.000000 -4.387862
K -6.581793 2.193931 -2.193931
