18

I 0.000000 0.000000 0.000000
G 2.193931 2.193931 -2.193931
L 4.387862 0.000000 -4.387862
R 6.581793 2.193931 -6.581793
G 8.775724 0.000000 -8.775724
L 10.969655 -2.193931 -6.581793
G 13.163586 0.000000 -4.387862
R 10.969655 2.193931 -2.193931
K 8.775724 0.000000 -0.000000
I 6.581793 -2.193931 -2.193931
A 8.775724 -4.387862 -4.387862
L 6.581793 -6.581793 -6.581793
I 4.387862 -4.387862 -8.775724
H 2.193931 -2.193931 -6.581793
K 0.000000 -4.387862 -4.387862
K 2.193931 -6.581793 -2.193931
Y 4.387862 -4.387862 -0.000000
G 2.193931 -2.193931 2.193931
