18

I 0.000000 0.000000 0.000000
G 2.193931 2.193931 -2.193931
L 4.387862 0.000000 -4.387862
R 6.581793 -2.193931 -2.193931
G 4.387862 -4.387862 0.000000
L 2.193931 -2.193931 2.193931
G 0.000000 -4.387862 4.387862
R -2.193931 -6.581793 2.193931
K -4.387862 -4.387862 0.000000
I -2.193931 -2.193931 -2.193931
A 0.000000 -4.387862 -4.387862
L 2.193931 -6.581793 -2.193931
I 0.000000 -8.775724 0.000000
H -2.193931 -10.969655 -2.193931
K 0.000000 -13.163586 -4.387862
K 2.193931 -10.969655 -6.581793
Y 4.387862 -8.775724 -4.387862
G 6.581793 -6.581793 -6.581793
