18

I 0.000000 0.000000 0.000000
G 2.193931 2.193931 -2.193931
L 4.387862 0.000000 -4.387862
R 6.581793 2.193931 -6.581793
G 4.387862 4.387862 -8.775724
L 2.193931 2.193931 -10.969655
G 4.387862 0.000000 -13.163586
R 6.581793 -2.193931 -10.969655
K 4.387862 -4.387862 -8.775724
I 2.193931 -2.193931 -6.581793
A 0.000000 0.000000 -8.775724
L -2.193931 2.193931 -6.581793
I 0.000000 4.387862 -4.387862
H -2.193931 6.581793 -2.193931
K -4.387862 4.387862 -0.000000
K -6.581793 2.193931 -2.193931
Y -4.387862 0.000000 -4.387862
G -2.193931 -2.193931 -2.193931
