26

Y 0.000000 0.000000 0.000000
Y 2.193931 2.193931 -2.193931
H 4.387862 0.000000 -4.387862
F 6.581793 -2.193931 -2.193931
W 4.387862 -4.387862 0.000000
H 6.581793 -6.581793 2.193931
R 4.387862 -8.775724 4.387862
G 2.193931 -10.969655 2.193931
V 0.000000 -8.775724 0.000000
T -2.193931 -6.581793 2.193931
K -4.387862 -4.387862 0.000000
R -2.193931 -2.193931 -2.193931
S 0.000000 -4.387862 -4.387862
L 2.193931 -6.581793 -2.193931
S 4.387862 -8.775724 -4.387862
P 6.581793 -6.581793 -6.581793
H 8.775724 -4.387862 -4.387862
R 10.969655 -6.581793 -2.193931
P 13.163586 -4.387862 -0.000000
R 10.969655 -2.193931 2.193931
H 8.775724 -0.000000 -0.000000
S 6.581793 2.193931 2.193931
R 4.387862 -0.000000 4.387862
L 2.193931 -2.193931 2.193931
Q 0.000000 -4.387862 4.387862
R -2.193931 -2.193931 6.581793
