26

Y 0.000000 0.000000 0.000000
Y 2.193931 2.193931 -2.193931
H 4.387862 0.000000 -4.387862
F 6.581793 -2.193931 -2.193931
W 4.387862 -4.387862 0.000000
H 2.193931 -2.193931 2.193931
R 0.000000 -4.387862 4.387862
G 2.193931 -6.581793 6.581793
V 4.387862 -8.775724 4.387862
T 6.581793 -10.969655 6.581793
K 8.775724 -8.775724 8.775724
R 10.969655 -6.581793 6.581793
S 8.775724 -4.387862 4.387862
L 6.581793 -6.581793 2.193931
S 8.775724 -8.775724 0.000000
P 10.969655 -6.581793 -2.193931
H 8.775724 -4.387862 -4.387862
R 6.581793 -6.581793 -6.581793
P 4.387862 -8.775724 -4.387862
R 6.581793 -10.969655 -2.193931
H 4.387862 -13.163586 0.000000
S 2.193931 -10.969655 2.193931
R 0.000000 -8.775724 0.000000
L 2.193931 -6.581793 -2.193931
Q 0.000000 -4.387862 -4.387862
R -2.193931 -2.193931 -2.193931
