26

Y 0.000000 0.000000 0.000000
Y 2.193931 2.193931 -2.193931
H 4.387862 0.000000 -4.387862
F 6.581793 -2.193931 -2.193931
W 8.775724 0.000000 0.000000
H 6.581793 2.193931 2.193931
R 4.387862 4.387862 0.000000
G 6.581793 6.581793 -2.193931
V 8.775724 4.387862 -4.387862
T 6.581793 2.193931 -6.581793
K 8.775724 0.000000 -8.775724
R 10.969655 -2.193931 -6.581793
S 13.163586 0.000000 -4.387862
L 10.969655 2.193931 -2.193931
S 13.163586 4.387862 -0.000000
P 10.969655 6.581793 2.193931
H 8.775724 4.387862 4.387862
R 10.969655 2.193931 6.581793
P 13.163586 0.000000 4.387862
R 10.969655 -2.193931 2.193931
H 8.775724 -4.387862 4.387862
S 6.581793 -2.193931 6.581793
R 4.387862 0.000000 4.387862
L 2.193931 -2.193931 2.193931
Q 4.387862 -4.387862 -0.000000
R 6.581793 -6.581793 2.193931
