16

W 0.000000 0.000000 0.000000
H 2.193931 2.193931 -2.193931
M 4.387862 0.000000 -4.387862
W 6.581793 2.193931 -6.581793
N 4.387862 4.387862 -8.775724
T 2.193931 2.193931 -10.969655
V 0.000000 0.000000 -8.775724
P -2.193931 2.193931 -6.581793
N 0.000000 4.387862 -4.387862
A -2.193931 6.581793 -2.193931
K -4.387862 4.387862 -0.000000
Q -6.581793 2.193931 -2.193931
V -4.387862 0.000000 -4.387862
I -2.193931 -2.193931 -2.193931
A 0.000000 -4.387862 -4.387862
A 2.193931 -2.193931 -6.581793
