16

W 0.000000 0.000000 0.000000
H 2.193931 2.193931 -2.193931
M 4.387862 0.000000 -4.387862
W 6.581793 -2.193931 -2.193931
N 8.775724 -4.387862 -4.387862
T 10.969655 -2.193931 -6.581793
V 8.775724 0.000000 -8.775724
P 6.581793 -2.193931 -10.969655
N 4.387862 -4.387862 -8.775724
A 2.193931 -2.193931 -6.581793
K 0.000000 0.000000 -8.775724
Q 2.193931 2.193931 -10.969655
V 4.387862 4.387862 -8.775724
I 6.581793 2.193931 -6.581793
A 8.775724 4.387862 -4.387862
A 10.969655 2.193931 -2.193931
