16

W 0.000000 0.000000 0.000000
H 2.193931 2.193931 -2.193931
M 4.387862 0.000000 -4.387862
W 6.581793 2.193931 -6.581793
N 8.775724 4.387862 -4.387862
T 6.581793 6.581793 -2.193931
V 4.387862 4.387862 -0.000000
P 6.581793 2.193931 2.193931
N 8.775724 0.000000 -0.000000
A 10.969655 -2.193931 2.193931
K 8.775724 -4.387862 4.387862
Q 6.581793 -2.193931 6.581793
V 4.387862 0.000000 4.387862
I 2.193931 -2.193931 2.193931
A 4.387862 -4.387862 -0.000000
A 6.581793 -2.193931 -2.193931
