13

I 0.000000 0.000000 0.000000
F 2.193931 2.193931 -2.193931
G 4.387862 0.000000 -4.387862
A 6.581793 -2.193931 -2.193931
I 8.775724 0.000000 0.000000
A 6.581793 2.193931 2.193931
G 4.387862 4.387862 0.000000
F 2.193931 6.581793 2.193931
I 0.000000 4.387862 4.387862
K -2.193931 2.193931 2.193931
N -4.387862 4.387862 0.000000
I -2.193931 6.581793 -2.193931
W 0.000000 4.387862 -4.387862
