13

I 0.000000 0.000000 0.000000
F 2.193931 2.193931 -2.193931
G 4.387862 0.000000 -4.387862
A 6.581793 -2.193931 -2.193931
I 4.387862 -4.387862 0.000000
A 2.193931 -2.193931 2.193931
G 4.387862 0.000000 4.387862
F 6.581793 2.193931 2.193931
I 4.387862 4.387862 0.000000
K 6.581793 6.581793 -2.193931
N 4.387862 8.775724 -4.387862
I 2.193931 6.581793 -6.581793
W 0.000000 4.387862 -4.387862
