14

I 0.000000 0.000000 0.000000
N 2.193931 2.193931 -2.193931
W 4.387862 0.000000 -4.387862
L 6.581793 -2.193931 -2.193931
K 4.387862 -4.387862 0.000000
L 6.581793 -6.581793 2.193931
G 8.775724 -8.775724 0.000000
K 10.969655 -6.581793 -2.193931
K 13.163586 -4.387862 0.000000
I 10.969655 -2.193931 2.193931
I 8.775724 -0.000000 0.000000
A 6.581793 2.193931 2.193931
S 4.387862 -0.000000 4.387862
L 2.193931 -2.193931 2.193931
