14

I 0.000000 0.000000 0.000000
N 2.193931 2.193931 -2.193931
W 4.387862 0.000000 -4.387862
L 6.581793 -2.193931 -2.193931
K 4.387862 -4.387862 0.000000
L 2.193931 -2.193931 2.193931
G 0.000000 -4.387862 4.387862
K -2.193931 -2.193931 6.581793
K 0.000000 0.000000 8.775724
I 2.193931 2.193931 6.581793
I 4.387862 0.000000 4.387862
A 6.581793 2.193931 2.193931
S 8.775724 0.000000 0.000000
L 10.969655 2.193931 -2.193931
