12

V 0.000000 0.000000 0.000000
R 2.687006 2.687006 0.000000
R 0.000000 5.374012 0.000000
F -2.687006 5.374012 -2.687006
D 0.000000 5.374012 -5.374012
L 0.000000 2.687006 -2.687006
L -2.687006 2.687006 0.000000
K -5.374012 0.000000 0.000000
R -5.374012 2.687006 -2.687006
I -2.687006 2.687006 -5.374012
L -2.687006 0.000000 -2.687006
K 0.000000 0.000000 -5.374012
