20

D 0.000000 0.000000 0.000000
A 2.193931 2.193931 -2.193931
Y 4.387862 0.000000 -4.387862
A 6.581793 2.193931 -6.581793
Q 4.387862 4.387862 -8.775724
W 2.193931 6.581793 -6.581793
L 0.000000 4.387862 -4.387862
K -2.193931 6.581793 -2.193931
D -4.387862 4.387862 -0.000000
G -6.581793 2.193931 -2.193931
G -8.775724 4.387862 -4.387862
P -6.581793 6.581793 -6.581793
S -4.387862 4.387862 -8.775724
S -2.193931 2.193931 -6.581793
G -4.387862 0.000000 -4.387862
R -2.193931 -2.193931 -2.193931
P 0.000000 -4.387862 -4.387862
P 2.193931 -2.193931 -6.581793
P 0.000000 0.000000 -8.775724
S 2.193931 2.193931 -10.969655
