12

F 0.000000 0.000000 0.000000
A 2.687006 2.687006 0.000000
T 0.000000 2.687006 -2.687006
M 2.687006 0.000000 -2.687006
R 2.687006 -2.687006 0.000000
Y 0.000000 -2.687006 -2.687006
P -2.687006 0.000000 -2.687006
S -2.687006 -2.687006 0.000000
D 0.000000 -5.374012 0.000000
S 0.000000 -2.687006 2.687006
D 2.687006 0.000000 2.687006
E 5.374012 0.000000 0.000000
