12

F 0.000000 0.000000 0.000000
A 2.687006 2.687006 0.000000
T 0.000000 2.687006 -2.687006
M 2.687006 0.000000 -2.687006
R 0.000000 -2.687006 -2.687006
Y 2.687006 -2.687006 0.000000
P 5.374012 -2.687006 -2.687006
S 5.374012 0.000000 0.000000
D 2.687006 0.000000 2.687006
S 0.000000 -2.687006 2.687006
D -2.687006 -2.687006 0.000000
E -2.687006 0.000000 -2.687006
