16

W 0.000000 0.000000 0.000000
H 2.193931 2.193931 -2.193931
M 4.387862 0.000000 -4.387862
W 6.581793 -2.193931 -2.193931
N 4.387862 -4.387862 0.000000
T 2.193931 -2.193931 2.193931
V 4.387862 0.000000 4.387862
P 6.581793 2.193931 2.193931
N 4.387862 4.387862 0.000000
A 2.193931 6.581793 2.193931
K 0.000000 8.775724 0.000000
Q -2.193931 6.581793 -2.193931
V -4.387862 4.387862 0.000000
I -2.193931 2.193931 2.193931
A 0.000000 4.387862 4.387862
A 2.193931 2.193931 6.581793
