13

I 0.000000 0.000000 0.000000
F 2.687006 2.687006 0.000000
G 0.000000 2.687006 -2.687006
A -2.687006 2.687006 0.000000
I -2.687006 5.374012 2.687006
A 0.000000 5.374012 5.374012
G 0.000000 8.061017 2.687006
F 0.000000 5.374012 0.000000
I 2.687006 5.374012 2.687006
K 5.374012 2.687006 2.687006
N 2.687006 0.000000 2.687006
I 0.000000 2.687006 2.687006
W 2.687006 2.687006 5.374012
