13

I 0.000000 0.000000 0.000000
F 2.687006 2.687006 0.000000
G 0.000000 5.374012 0.000000
A 0.000000 2.687006 -2.687006
I 2.687006 0.000000 -2.687006
A 5.374012 0.000000 0.000000
G 2.687006 -2.687006 0.000000
F 2.687006 0.000000 2.687006
I 0.000000 2.687006 2.687006
K 0.000000 0.000000 5.374012
N 0.000000 -2.687006 2.687006
I -2.687006 0.000000 2.687006
W -2.687006 2.687006 0.000000
