20

D 0.000000 0.000000 0.000000
A 2.193931 2.193931 -2.193931
Y 4.387862 0.000000 -4.387862
A 6.581793 2.193931 -6.581793
Q 8.775724 4.387862 -4.387862
W 10.969655 2.193931 -2.193931
L 8.775724 0.000000 -0.000000
K 6.581793 -2.193931 -2.193931
D 4.387862 -4.387862 -0.000000
G 2.193931 -2.193931 2.193931
G 4.387862 0.000000 4.387862
P 6.581793 2.193931 2.193931
S 4.387862 4.387862 -0.000000
S 6.581793 6.581793 -2.193931
G 8.775724 8.775724 -0.000000
R 10.969655 6.581793 2.193931
P 13.163586 4.387862 -0.000000
P 15.357517 2.193931 2.193931
P 13.163586 0.000000 4.387862
S 10.969655 -2.193931 2.193931
