20

D 0.000000 0.000000 0.000000
A 2.193931 2.193931 -2.193931
Y 4.387862 0.000000 -4.387862
A 6.581793 2.193931 -6.581793
Q 4.387862 4.387862 -8.775724
W 2.193931 6.581793 -6.581793
L 0.000000 4.387862 -4.387862
K -2.193931 6.581793 -2.193931
D 0.000000 8.775724 -0.000000
G 2.193931 10.969655 -2.193931
G 0.000000 13.163586 -4.387862
P -2.193931 10.969655 -6.581793
S 0.000000 8.775724 -8.775724
S 2.193931 10.969655 -10.969655
G 4.387862 13.163586 -8.775724
R 6.581793 10.969655 -6.581793
P 4.387862 8.775724 -4.387862
P 6.581793 6.581793 -2.193931
P 4.387862 4.387862 -0.000000
S 2.193931 6.581793 2.193931
