20

D 0.000000 0.000000 0.000000
A 2.193931 2.193931 -2.193931
Y 4.387862 0.000000 -4.387862
A 6.581793 -2.193931 -2.193931
Q 4.387862 -4.387862 0.000000
W 2.193931 -2.193931 2.193931
L 4.387862 0.000000 4.387862
K 6.581793 -2.193931 6.581793
D 8.775724 -4.387862 4.387862
G 10.969655 -2.193931 2.193931
G 8.775724 0.000000 0.000000
P 6.581793 2.193931 2.193931
S 4.387862 4.387862 0.000000
S 2.193931 6.581793 2.193931
G 0.000000 4.387862 4.387862
R 2.193931 2.193931 6.581793
P 0.000000 0.000000 8.775724
P -2.193931 -2.193931 6.581793
P 0.000000 -4.387862 4.387862
S 2.193931 -6.581793 6.581793
