20

D 0.000000 0.000000 0.000000
A 2.193931 2.193931 -2.193931
Y 4.387862 0.000000 -4.387862
A 6.581793 2.193931 -6.581793
Q 4.387862 4.387862 -8.775724
W 2.193931 2.193931 -10.969655
L 0.000000 0.000000 -8.775724
K 2.193931 -2.193931 -6.581793
D 4.387862 -4.387862 -8.775724
G 2.193931 -6.581793 -10.969655
G 0.000000 -4.387862 -13.163586
P -2.193931 -2.193931 -10.969655
S -4.387862 -4.387862 -8.775724
S -2.193931 -6.581793 -6.581793
G 0.000000 -4.387862 -4.387862
R -2.193931 -2.193931 -2.193931
P -4.387862 -0.000000 -4.387862
P -2.193931 2.193931 -6.581793
P 0.000000 4.387862 -4.387862
S 2.193931 6.581793 -6.581793
