13

I 0.000000 0.000000 0.000000
F 2.687006 2.687006 0.000000
G 5.374012 5.374012 0.000000
A 5.374012 2.687006 2.687006
I 2.687006 0.000000 2.687006
A 2.687006 -2.687006 0.000000
G 5.374012 -2.687006 -2.687006
F 5.374012 0.000000 0.000000
I 2.687006 0.000000 -2.687006
K 5.374012 0.000000 -5.374012
N 8.061017 0.000000 -2.687006
I 5.374012 2.687006 -2.687006
W 8.061017 2.687006 0.000000
