13

I 0.000000 0.000000 0.000000
F 2.687006 2.687006 0.000000
G 0.000000 5.374012 0.000000
A 0.000000 2.687006 2.687006
I -2.687006 2.687006 0.000000
A -2.687006 0.000000 -2.687006
G 0.000000 0.000000 -5.374012
F 0.000000 2.687006 -2.687006
I 2.687006 0.000000 -2.687006
K 5.374012 0.000000 0.000000
N 2.687006 0.000000 2.687006
I 2.687006 -2.687006 0.000000
W 0.000000 -2.687006 -2.687006
