13

I 0.000000 0.000000 0.000000
F 2.193931 2.193931 -2.193931
G 4.387862 0.000000 -4.387862
A 6.581793 2.193931 -6.581793
I 4.387862 4.387862 -8.775724
A 2.193931 6.581793 -6.581793
G 0.000000 4.387862 -4.387862
F -2.193931 2.193931 -6.581793
I -4.387862 4.387862 -8.775724
K -2.193931 6.581793 -10.969655
N 0.000000 4.387862 -13.163586
I 2.193931 2.193931 -10.969655
W 0.000000 0.000000 -8.775724
