10

D 0.000000 0.000000 0.000000
L 2.193931 2.193931 -2.193931
D 4.387862 0.000000 -4.387862
A 6.581793 2.193931 -6.581793
L 8.775724 4.387862 -4.387862
L 6.581793 6.581793 -2.193931
A 8.775724 8.775724 -0.000000
D 10.969655 10.969655 -2.193931
L 13.163586 8.775724 -4.387862
E 10.969655 6.581793 -6.581793
