10

D 0.000000 0.000000 0.000000
L 2.193931 2.193931 -2.193931
D 4.387862 0.000000 -4.387862
A 6.581793 -2.193931 -2.193931
L 4.387862 -4.387862 0.000000
L 2.193931 -2.193931 2.193931
A 4.387862 0.000000 4.387862
D 6.581793 2.193931 2.193931
L 4.387862 4.387862 0.000000
E 6.581793 6.581793 -2.193931
