26

Y 0.000000 0.000000 0.000000
Y 2.193931 2.193931 -2.193931
H 4.387862 0.000000 -4.387862
F 6.581793 2.193931 -6.581793
W 8.775724 0.000000 -8.775724
H 6.581793 -2.193931 -10.969655
R 4.387862 0.000000 -13.163586
G 2.193931 2.193931 -10.969655
V 4.387862 4.387862 -8.775724
T 2.193931 6.581793 -6.581793
K 0.000000 4.387862 -4.387862
R -2.193931 2.193931 -6.581793
S 0.000000 0.000000 -8.775724
L 2.193931 -2.193931 -6.581793
S 4.387862 -4.387862 -8.775724
P 6.581793 -6.581793 -6.581793
H 8.775724 -4.387862 -4.387862
R 6.581793 -2.193931 -2.193931
P 8.775724 0.000000 -0.000000
R 6.581793 2.193931 2.193931
H 4.387862 4.387862 -0.000000
S 6.581793 6.581793 -2.193931
R 8.775724 4.387862 -4.387862
L 10.969655 2.193931 -2.193931
Q 13.163586 0.000000 -4.387862
R 10.969655 -2.193931 -6.581793
