26

Y 0.000000 0.000000 0.000000
Y 2.193931 2.193931 -2.193931
H 4.387862 0.000000 -4.387862
F 6.581793 -2.193931 -2.193931
W 4.387862 -4.387862 0.000000
H 6.581793 -6.581793 2.193931
R 8.775724 -4.387862 4.387862
G 10.969655 -2.193931 2.193931
V 8.775724 -0.000000 0.000000
T 6.581793 2.193931 2.193931
K 4.387862 4.387862 0.000000
R 2.193931 6.581793 2.193931
S 0.000000 4.387862 4.387862
L -2.193931 2.193931 2.193931
S -4.387862 -0.000000 4.387862
P -6.581793 -2.193931 2.193931
H -4.387862 -4.387862 0.000000
R -2.193931 -2.193931 -2.193931
P 0.000000 -4.387862 -4.387862
R 2.193931 -6.581793 -2.193931
H 0.000000 -8.775724 0.000000
S -2.193931 -6.581793 2.193931
R 0.000000 -4.387862 4.387862
L 2.193931 -2.193931 2.193931
Q 4.387862 -0.000000 4.387862
R 6.581793 -2.193931 6.581793
