26

Y 0.000000 0.000000 0.000000
Y 2.193931 2.193931 -2.193931
H 4.387862 0.000000 -4.387862
F 6.581793 -2.193931 -2.193931
W 4.387862 -4.387862 0.000000
H 2.193931 -6.581793 -2.193931
R 0.000000 -8.775724 0.000000
G -2.193931 -6.581793 2.193931
V -4.387862 -4.387862 0.000000
T -6.581793 -2.193931 2.193931
K -4.387862 -0.000000 4.387862
R -2.193931 -2.193931 6.581793
S 0.000000 -4.387862 4.387862
L 2.193931 -2.193931 2.193931
S 4.387862 -0.000000 4.387862
P 6.581793 2.193931 2.193931
H 4.387862 4.387862 0.000000
R 2.193931 6.581793 2.193931
P 0.000000 4.387862 4.387862
R -2.193931 2.193931 2.193931
H -4.387862 4.387862 0.000000
S -6.581793 2.193931 -2.193931
R -4.387862 -0.000000 -4.387862
L -2.193931 -2.193931 -2.193931
Q 0.000000 -4.387862 -4.387862
R 2.193931 -2.193931 -6.581793
