26

Y 0.000000 0.000000 0.000000
Y 2.193931 2.193931 -2.193931
H 4.387862 0.000000 -4.387862
F 6.581793 2.193931 -6.581793
W 8.775724 0.000000 -8.775724
H 10.969655 -2.193931 -6.581793
R 13.163586 0.000000 -4.387862
G 10.969655 2.193931 -2.193931
V 8.775724 4.387862 -4.387862
T 6.581793 6.581793 -2.193931
K 4.387862 4.387862 -0.000000
R 6.581793 2.193931 2.193931
S 8.775724 0.000000 -0.000000
L 6.581793 -2.193931 -2.193931
S 8.775724 -4.387862 -4.387862
P 6.581793 -6.581793 -6.581793
H 4.387862 -4.387862 -8.775724
R 2.193931 -2.193931 -6.581793
P 0.000000 0.000000 -8.775724
R -2.193931 2.193931 -6.581793
H 0.000000 4.387862 -4.387862
S 2.193931 6.581793 -6.581793
R 4.387862 4.387862 -8.775724
L 2.193931 2.193931 -10.969655
Q 4.387862 0.000000 -13.163586
R 6.581793 -2.193931 -10.969655
