26

Y 0.000000 0.000000 0.000000
Y 2.193931 2.193931 -2.193931
H 4.387862 0.000000 -4.387862
F 6.581793 2.193931 -6.581793
W 8.775724 4.387862 -4.387862
H 6.581793 6.581793 -2.193931
R 4.387862 4.387862 -0.000000
G 6.581793 2.193931 2.193931
V 8.775724 0.000000 -0.000000
T 10.969655 -2.193931 2.193931
K 8.775724 -4.387862 4.387862
R 6.581793 -6.581793 2.193931
S 4.387862 -4.387862 -0.000000
L 6.581793 -2.193931 -2.193931
S 8.775724 -4.387862 -4.387862
P 10.969655 -2.193931 -6.581793
H 8.775724 0.000000 -8.775724
R 10.969655 2.193931 -10.969655
P 13.163586 4.387862 -8.775724
R 10.969655 6.581793 -6.581793
H 13.163586 8.775724 -4.387862
S 15.357517 6.581793 -2.193931
R 13.163586 4.387862 -0.000000
L 10.969655 2.193931 -2.193931
Q 13.163586 0.000000 -4.387862
R 15.357517 2.193931 -6.581793
