26

Y 0.000000 0.000000 0.000000
Y 2.193931 2.193931 -2.193931
H 4.387862 0.000000 -4.387862
F 6.581793 2.193931 -6.581793
W 4.387862 4.387862 -8.775724
H 2.193931 2.193931 -10.969655
R 4.387862 0.000000 -13.163586
G 6.581793 -2.193931 -10.969655
V 8.775724 0.000000 -8.775724
T 10.969655 -2.193931 -6.581793
K 8.775724 -4.387862 -4.387862
R 6.581793 -6.581793 -6.581793
S 4.387862 -4.387862 -8.775724
L 2.193931 -2.193931 -6.581793
S 0.000000 -0.000000 -8.775724
P -2.193931 2.193931 -6.581793
H 0.000000 4.387862 -4.387862
R 2.193931 6.581793 -6.581793
P 4.387862 8.775724 -4.387862
R 6.581793 6.581793 -2.193931
H 8.775724 4.387862 -4.387862
S 10.969655 2.193931 -2.193931
R 8.775724 -0.000000 -0.000000
L 6.581793 -2.193931 -2.193931
Q 4.387862 -4.387862 -0.000000
R 2.193931 -2.193931 2.193931
